LTspice 26.0.1 for Windows
Circuit: C:\Users\jbwil\OneDrive - University of Wyoming\Documents\ELECTRIC_FILES\ELECTRIC\Homework_5\Carryout_V3.spi
Start Time: Tue Apr  7 15:37:42 2026
Ignoring BSIM parameter XL
Ignoring BSIM parameter XW
Ignoring BSIM parameter XL
Ignoring BSIM parameter XW
solver = Normal
Maximum thread count: 16
tnom = 27
temp = 27
method = trap
Direct Newton iteration succeeded in finding operating point.
Total elapsed time: 0.399 seconds.

Files loaded:
C:\Users\jbwil\OneDrive - University of Wyoming\Documents\ELECTRIC_FILES\ELECTRIC\Homework_5\Carryout_V3.spi
C:\Users\jbwil\AMI0p5BSIM.txt

tpd_rise_case2=2.43244509924e-09 FROM 1.005e-09 TO 3.43744509924e-09
rise_time_case2=7.79335030998e-10 FROM 3.144685645e-09 TO 3.92402067599e-09
input_rise_time_a1=8e-12 FROM 1.001e-09 TO 1.009e-09
output_rise_delay=2.43244509924e-09 FROM 1.005e-09 TO 3.43744509924e-09
