LTspice 26.0.1 for Windows
Circuit: C:\Users\jbwil\OneDrive - University of Wyoming\Documents\ELECTRIC_FILES\ELECTRIC\Homework_5\SUM_V0.spi
Start Time: Tue Apr  7 14:55:56 2026
Ignoring BSIM parameter XL
Ignoring BSIM parameter XW
Ignoring BSIM parameter XL
Ignoring BSIM parameter XW
solver = Normal
Maximum thread count: 16
tnom = 27
temp = 27
method = trap
Warning: Pd = 0 is less than W.
Warning: Ps = 0 is less than W.
Warning: Pd = 0 is less than W.
Warning: Ps = 0 is less than W.
Warning: Pd = 0 is less than W.
Warning: Ps = 0 is less than W.
Warning: Pd = 0 is less than W.
Warning: Ps = 0 is less than W.
Direct Newton iteration succeeded in finding operating point.
Total elapsed time: 0.288 seconds.

Files loaded:
C:\Users\jbwil\OneDrive - University of Wyoming\Documents\ELECTRIC_FILES\ELECTRIC\Homework_5\SUM_V0.spi
C:\Users\jbwil\AMI0p5BSIM.txt

tpd_rise_a_fall=4.21833270158e-10 FROM 1.005e-09 TO 1.42683327016e-09
rise_time_10_90=1.74220359836e-10 FROM 1.35226857672e-09 TO 1.52648893656e-09
input_fall_time=8e-12 FROM 1.001e-09 TO 1.009e-09
output_rise_time=1.74220359836e-10 FROM 1.35226857672e-09 TO 1.52648893656e-09
