LTspice 26.0.1 for Windows
Circuit: C:\Users\jbwil\OneDrive - University of Wyoming\Documents\ELECTRIC FILES\Homework 5\XOR.spi
Start Time: Sun Mar 29 16:45:05 2026
Ignoring BSIM parameter XL
Ignoring BSIM parameter XW
Ignoring BSIM parameter XL
Ignoring BSIM parameter XW
solver = Normal
Maximum thread count: 16
tnom = 27
temp = 27
method = trap
Direct Newton iteration succeeded in finding operating point.
Total elapsed time: 0.161 seconds.

Files loaded:
C:\Users\jbwil\OneDrive - University of Wyoming\Documents\ELECTRIC FILES\Homework 5\XOR.spi
C:\Users\jbwil\OneDrive - University of Wyoming\Documents\ELECTRIC FILES\AMI0p5BSIM.txt

trise_1=6.43493841302e-09 FROM 1.50368953823e-10 TO 6.58530736684e-09
trise_2=5.81227694321e-09 FROM 5.33166009786e-09 TO 1.11439370411e-08
trise_3=6.43602979245e-09 FROM 2.01491725366e-08 TO 2.6585202329e-08
trise_4=5.81322453262e-09 FROM 2.53317967229e-08 TO 3.11450212555e-08
tfall_1=-9.8296200526e-09 FROM 1.01106514246e-08 TO 2.81031371973e-10
tfall_2=1.30955265912e-09 FROM 1.5439263665e-08 TO 1.67488163241e-08
tfall_3=-9.82761666093e-09 FROM 3.01102474647e-08 TO 2.02826308038e-08
tfall_4=1.30957348099e-09 FROM 3.54392173274e-08 TO 3.67487908084e-08
max_r12: max(trise_1, trise_2)=6.43493841302e-09
max_r34: max(trise_3, trise_4)=6.43602979245e-09
max_rise: max(max_r12, max_r34)=6.43602979245e-09
max_f12: max(tfall_1, tfall_2)=1.30955265912e-09
max_f34: max(tfall_3, tfall_4)=1.30957348099e-09
max_fall: max(max_f12, max_f34)=1.30957348099e-09
