LTspice 26.0.1 for Windows
Circuit: C:\Users\jbwil\OneDrive - University of Wyoming\Documents\ELECTRIC FILES\P1_Lp0.7_Wn1.05_Ln1.4.spi
Start Time: Sun Mar  8 18:32:06 2026
Ignoring BSIM parameter XL
Ignoring BSIM parameter XW
Ignoring BSIM parameter XL
Ignoring BSIM parameter XW
solver = Normal
Maximum thread count: 16
tnom = 27
temp = 27
method = trap
Direct Newton iteration succeeded in finding operating point.
Total elapsed time: 0.062 seconds.

Files loaded:
C:\Users\jbwil\OneDrive - University of Wyoming\Documents\ELECTRIC FILES\P1_Lp0.7_Wn1.05_Ln1.4.spi
C:\Users\jbwil\OneDrive - University of Wyoming\Documents\ELECTRIC FILES\AMI0p5BSIM.txt

tfall_90_10=2.90240545425e-07 FROM 1.33680143216e-07 TO 4.23920688641e-07
trise_10_90=2.90679622671e-07 FROM 1.14225796672e-06 TO 1.43293758939e-06
tphl=1.41689370903e-07 FROM 1.05000000028e-07 TO 2.46689370931e-07
tplh=1.36399226064e-07 FROM 1.11500000008e-06 TO 1.25139922614e-06
tpd_avg: (TPHL+TPLH)/2=1.39044298483e-07
